*Heading
** Job name: Job-eq_BendX Model name: eq_BendX
** Generated by: Abaqus/CAE 2022
*Preprint, echo=NO, model=NO, history=NO, contact=NO
**
** PARTS
**
*Part, name=Part-1
*Node
1,           0.,           0.,           0.
2,   6.15384626,           0.,           0.
3,   12.3076925,           0.,           0.
4,   18.4615383,           0.,           0.
5,   24.6153851,           0.,           0.
6,   30.7692299,           0.,           0.
7,   36.9230766,           0.,           0.
8,   43.0769234,           0.,           0.
9,   49.2307701,           0.,           0.
10,   55.3846169,           0.,           0.
11,   61.5384598,           0.,           0.
12,   67.6923065,           0.,           0.
13,   73.8461533,           0.,           0.
14,          80.,           0.,           0.
15,           0.,   6.15384626,           0.
16,   6.15384626,   6.15384626,           0.
17,   12.3076925,   6.15384626,           0.
18,   18.4615383,   6.15384626,           0.
19,   24.6153851,   6.15384626,           0.
20,   30.7692299,   6.15384626,           0.
** ... 540 like lines cut
*User element, nodes=8, type=U1001, coordinates=3, variables=1
1,2,3,4,5,11,12
*Element, type=U1001
1,   1,   2,  16,  15, 197, 198, 199, 200
2,   2,   3,  17,  16, 201, 202, 203, 198
3,   3,   4,  18,  17, 204, 205, 206, 202
4,   4,   5,  19,  18, 207, 208, 209, 205
5,   5,   6,  20,  19, 210, 211, 212, 208
6,   6,   7,  21,  20, 213, 214, 215, 211
7,   7,   8,  22,  21, 216, 217, 218, 214
8,   8,   9,  23,  22, 219, 220, 221, 217
9,   9,  10,  24,  23, 222, 223, 224, 220
10,  10,  11,  25,  24, 225, 226, 227, 223
11,  11,  12,  26,  25, 228, 229, 230, 226
12,  12,  13,  27,  26, 231, 232, 233, 229
13,  13,  14,  28,  27, 234, 235, 236, 232
14,  15,  16,  30,  29, 199, 237, 238, 239
15,  16,  17,  31,  30, 203, 240, 241, 237
16,  17,  18,  32,  31, 206, 242, 243, 240
17,  18,  19,  33,  32, 209, 244, 245, 242
18,  19,  20,  34,  33, 212, 246, 247, 244
19,  20,  21,  35,  34, 215, 248, 249, 246
20,  21,  22,  36,  35, 218, 250, 251, 248
** ... 149 like lines cut
*Element, type=S8RT,elset=dummy
170,1,2,16,15,197,198,199,200
171,2,3,17,16,201,202,203,198
172,3,4,18,17,204,205,206,202
173,4,5,19,18,207,208,209,205
174,5,6,20,19,210,211,212,208
175,6,7,21,20,213,214,215,211
176,7,8,22,21,216,217,218,214
177,8,9,23,22,219,220,221,217
178,9,10,24,23,222,223,224,220
179,10,11,25,24,225,226,227,223
180,11,12,26,25,228,229,230,226
181,12,13,27,26,231,232,233,229
182,13,14,28,27,234,235,236,232
183,15,16,30,29,199,237,238,239
184,16,17,31,30,203,240,241,237
185,17,18,32,31,206,242,243,240
186,18,19,33,32,209,244,245,242
187,19,20,34,33,212,246,247,244
188,20,21,35,34,215,248,249,246
189,21,22,36,35,218,250,251,248
** ... 149 like lines cut
*Nset, nset=_PickedSet2, internal, generate
1,  560,    1
*Elset, elset=_PickedSet2, internal, generate
1,  169,    1
*Uel property, elset=_PickedSet2
1.,0.,0.,0.,0.,1.
*Shell Section, elset=dummy, material=dummy_mat
1.0e-10,5
*End Part
**  
**
** ASSEMBLY
**
*Assembly, name=Assembly
**  
*Instance, name=Part-1-1, part=Part-1
*End Instance
**  
*Node
1,           0.,          40.,           0.
*Node
2,          80.,          40.,           0.
*Nset, nset=Set-1, instance=Part-1-1
1,  15,  29,  43,  57,  71,  85,  99, 113, 127, 141, 155, 169, 183, 200, 239
266, 293, 320, 347, 374, 401, 428, 455, 482, 509, 536
*Nset, nset=Set-2, instance=Part-1-1
14,  28,  42,  56,  70,  84,  98, 112, 126, 140, 154, 168, 182, 196, 235, 262
289, 316, 343, 370, 397, 424, 451, 478, 505, 532, 559
*Nset, nset=m_Set-rp1
1,
*Nset, nset=m_Set-rp2
2,
*Surface, type=NODE, name=Set-1_CNS_, internal
Set-1, 1.
*Surface, type=NODE, name=Set-2_CNS_, internal
Set-2, 1.
** Constraint: Constraint-1
*Coupling, constraint name=Constraint-1, ref node=m_Set-rp1, surface=Set-1_CNS_
*Kinematic
** Constraint: Constraint-2
*Coupling, constraint name=Constraint-2, ref node=m_Set-rp2, surface=Set-2_CNS_
*Kinematic
*End Assembly
*Material, name=dummy_mat
*Conductivity
 0.,
*Elastic
1e-16,0.3
** ----------------------------------------------------------------
** 
** STEP: Step-1
** 
*Step, name=Step-1, nlgeom=NO
*Coupled Temperature-displacement, creep=none, steady state
1., 1., 1e-05, 1.
** 
** BOUNDARY CONDITIONS
** 
** Name: BC-1 Type: Displacement/Rotation
*Boundary
m_Set-rp1, 1, 1
m_Set-rp1, 2, 2
m_Set-rp1, 3, 3
m_Set-rp1, 4, 4
m_Set-rp1, 5, 5
m_Set-rp1, 6, 6
** 
** LOADS
** 
** Name: Load-1   Type: Moment
*Cload
m_Set-rp2, 5, -100.
** 
** OUTPUT REQUESTS
** 
*Restart, write, frequency=0
** 
** FIELD OUTPUT: F-Output-1
** 
*Output, field, variable=PRESELECT
*Element Output, directions=YES
TEMP
*Node Output
NT
** 
** HISTORY OUTPUT: H-Output-1
** 
*Output, history
*Node Output, nset=m_Set-rp2
U1, U2, U3, UR1, UR2, UR3
*End Step
